Circuit: * C:\Users\rhern\OneDrive\Documents\15-Fall 2024\EE 492\Amplifier\Dorr_Amp\Current_Calc\Current_Calc\Dorr_full.asc

Warning: Multiple definitions of model "2scr375p" Type: BJT
Warning: Multiple definitions of model "bc857b" Type: BJT
Warning: Multiple definitions of model "bc847c" Type: BJT
Warning: Multiple definitions of model "bc847b" Type: BJT
Direct Newton iteration for .op point succeeded.

Date: Sun Sep  8 16:13:45 2024
Total elapsed time: 0.719 seconds.

tnom = 27
temp = 27
method = modified trap
totiter = 42728
traniter = 42716
tranpoints = 15039
accept = 10312
rejected = 4727
matrix size = 65
fillins = 68
solver = Normal
Avg thread counts: 1.0/1.0/1.0/1.0
Matrix Compiler1: 8.22 KB object code size  1.5/1.1/[0.7]
Matrix Compiler2: 6.79 KB object code size  0.6/1.0/[0.5]

