Circuit: * C:\Users\tstor\Github\Bluetooth-Speaker-Senior-Design\docs\Kicad Files\Amplifier\Amplifier, REV-\Current_Calc\Current_Calc\Dorr_full_RevA.asc

Warning: Multiple definitions of model "2scr375p" Type: BJT
Warning: Multiple definitions of model "bc857b" Type: BJT
Warning: Multiple definitions of model "bc847c" Type: BJT
Warning: Multiple definitions of model "bc847b" Type: BJT
Direct Newton iteration for .op point succeeded.

Date: Thu Sep 12 11:31:40 2024
Total elapsed time: 0.508 seconds.

tnom = 27
temp = 27
method = modified trap
totiter = 45034
traniter = 45021
tranpoints = 15956
accept = 11025
rejected = 4931
matrix size = 62
fillins = 96
solver = Normal
Avg thread counts: 1.0/1.0/1.0/1.0
Matrix Compiler1: 10.47 KB object code size  2.5/2.7/[1.0]
Matrix Compiler2: 7.01 KB object code size  1.0/2.1/[0.5]

