Circuit: * H:\My Drive\SDSU\Spring 2024\Senior Design A\Boom Boom Tweet\Technical\LTSpice\Current_Calc\Dorr_full.asc

Direct Newton iteration for .op point succeeded.

Date: Mon Sep  9 16:01:12 2024
Total elapsed time: 0.876 seconds.

tnom = 27
temp = 27
method = modified trap
totiter = 44863
traniter = 44850
tranpoints = 15902
accept = 11036
rejected = 4866
matrix size = 61
fillins = 72
solver = Normal
Avg thread counts: 1.1/1.3/1.2/1.1
Matrix Compiler1: 8.29 KB object code size  3.0/2.0/[1.4]
Matrix Compiler2: 6.55 KB object code size  1.0/1.2/[0.6]

