Circuit: * C:\Users\tstor\Github\Bluetooth-Speaker-Senior-Design\docs\LTSPice Schematics\Amplifier\Current_Calc\Dorr_full_RevA.asc

Warning: Multiple definitions of model "2scr375p" Type: BJT
Warning: Multiple definitions of model "bc857b" Type: BJT
Warning: Multiple definitions of model "bc847c" Type: BJT
Warning: Multiple definitions of model "bc847b" Type: BJT
Direct Newton iteration for .op point succeeded.

Date: Thu Sep 26 18:34:21 2024
Total elapsed time: 1.078 seconds.

tnom = 27
temp = 27
method = modified trap
totiter = 43740
traniter = 43727
tranpoints = 15540
accept = 10683
rejected = 4857
matrix size = 61
fillins = 72
solver = Normal
Avg thread counts: 2.0/1.0/1.0/1.0
Matrix Compiler1: 8.29 KB object code size  2.2/2.0/[0.6]
Matrix Compiler2: 6.55 KB object code size  0.9/1.0/[0.5]

