Circuit: * C:\Users\tstor\Github\Bluetooth-Speaker-Senior-Design\docs\LTSPice Schematics\Amplifier\Dorr_full_RevA.asc

Warning: Multiple definitions of model "2scr375p" Type: BJT
Warning: Multiple definitions of model "bc857b" Type: BJT
Warning: Multiple definitions of model "bc847c" Type: BJT
Warning: Multiple definitions of model "bc847b" Type: BJT
WARNING: Node SPEAKER+ is floating.

WARNING: Less than two connections to node speaker+.  This node is used by c8.
Direct Newton iteration for .op point succeeded.

Date: Thu Oct  3 18:52:31 2024
Total elapsed time: 0.376 seconds.

tnom = 27
temp = 27
method = modified trap
totiter = 13879
traniter = 13866
tranpoints = 5803
accept = 3529
rejected = 2274
matrix size = 61
fillins = 70
solver = Normal
Avg thread counts: 1.0/1.1/1.1/1.0
Matrix Compiler1: 8.21 KB object code size  28.6/1.6/[0.8]
Matrix Compiler2: 6.48 KB object code size  1.0/1.3/[0.7]

