Circuit: * E:\Tristan\GitHub\Bluetooth-Speaker-Senior-Design\docs\LTSPice Schematics\Amplifier\Dorr_full_RevA.asc

Direct Newton iteration for .op point succeeded.

Date: Tue Oct 15 21:34:48 2024
Total elapsed time: 0.811 seconds.

tnom = 27
temp = 27
method = modified trap
totiter = 45378
traniter = 45365
tranpoints = 16382
accept = 11390
rejected = 4992
matrix size = 61
fillins = 72
solver = Normal
Avg thread counts: 1.1/1.2/1.2/1.1
Matrix Compiler1: 8.29 KB object code size  2.2/1.5/[1.2]
Matrix Compiler2: 6.55 KB object code size  0.8/0.9/[0.5]

