Circuit: * E:\Tristan\GitHub\Bluetooth-Speaker-Senior-Design\docs\LTSPice Schematics\Amplifier\Dorr_full_RevA.asc

Direct Newton iteration for .op point succeeded.

Date: Mon Oct 14 10:54:52 2024
Total elapsed time: 0.688 seconds.

tnom = 27
temp = 27
method = modified trap
totiter = 37685
traniter = 37672
tranpoints = 13547
accept = 9434
rejected = 4113
matrix size = 61
fillins = 72
solver = Normal
Avg thread counts: 1.1/1.3/1.2/1.1
Matrix Compiler1: 8.29 KB object code size  2.4/1.7/[1.5]
Matrix Compiler2: 6.55 KB object code size  0.7/0.8/[0.5]

