Circuit: * C:\Users\tstor\Github\Bluetooth-Speaker-Senior-Design\docs\LTSPice Schematics\Amplifier\Dorr_full_RevA.asc

Warning: Multiple definitions of model "2scr375p" Type: BJT
Warning: Multiple definitions of model "bc857b" Type: BJT
Warning: Multiple definitions of model "bc847c" Type: BJT
Warning: Multiple definitions of model "bc847b" Type: BJT
Direct Newton iteration for .op point succeeded.

Date: Tue Nov 12 19:01:36 2024
Total elapsed time: 0.570 seconds.

tnom = 27
temp = 27
method = modified trap
totiter = 45273
traniter = 45260
tranpoints = 16319
accept = 11380
rejected = 4939
matrix size = 61
fillins = 72
solver = Normal
Avg thread counts: 1.0/1.0/1.0/1.0
Matrix Compiler1: 8.29 KB object code size  2.0/2.0/[0.8]
Matrix Compiler2: 6.55 KB object code size  0.7/1.5/[0.6]

