Circuit: * C:\Users\rhern\OneDrive\Documents\15-Fall 2024\EE 492\Bluetooth-Speaker-Senior-Design\docs\LTSPice Schematics\Power Distribution Jack\PD Jack.asc

Direct Newton iteration for .op point succeeded.
Semiconductor Device Operating Points:
                        --- Diodes ---
Name:      d1
Model:      d
Id:      1.73e-02
Vd:      7.29e-01
Req:     1.50e+00
CAP:     0.00e+00



Date: Fri Nov  8 16:56:51 2024
Total elapsed time: 0.055 seconds.

tnom = 27
temp = 27
method = trap
totiter = 3
traniter = 0
tranpoints = 0
accept = 0
rejected = 0
matrix size = 3
fillins = 0
solver = Normal
Avg thread counts: 8.0/0.0/8.0/8.0
Matrix Compiler1: 68 bytes object code size
Matrix Compiler2: 175 bytes object code size
