Circuit: * C:\Users\tstor\OneDrive\Desktop\Amplifier, REV-A\Current_Calc\Current_Calc\Dorr_full_RevA.asc

Direct Newton iteration for .op point succeeded.

Date: Wed Sep 11 13:30:53 2024
Total elapsed time: 0.541 seconds.

tnom = 27
temp = 27
method = modified trap
totiter = 45109
traniter = 45096
tranpoints = 16062
accept = 11139
rejected = 4923
matrix size = 62
fillins = 96
solver = Normal
Avg thread counts: 1.1/1.2/1.2/1.1
Matrix Compiler1: 10.47 KB object code size  3.1/2.3/[2.2]
Matrix Compiler2: 7.01 KB object code size  0.8/1.1/[0.5]

