Circuit: * E:\Tristan\GitHub\Bluetooth-Speaker-Senior-Design\docs\LTSPice Schematics\ATmega_BM83\Draft1.asc

Direct Newton iteration for .op point succeeded.

Date: Wed Oct  2 14:58:41 2024
Total elapsed time: 0.099 seconds.

tnom = 27
temp = 27
method = modified trap
totiter = 2091
traniter = 2088
tranpoints = 1045
accept = 1045
rejected = 0
matrix size = 3
fillins = 0
solver = Normal
Avg thread counts: 2.9/4.8/4.8/2.9
Matrix Compiler1:       5 opcodes  0.1/[0.1]/0.1
Matrix Compiler2: off  [0.0]/0.1/0.0

